Circuit: * C:\Users\haha3\Documents\Chronos\Spice\Draft1.asc

Direct Newton iteration for .op point succeeded.

Date: Sun Mar 29 11:47:59 2020
Total elapsed time: 0.085 seconds.

tnom = 27
temp = 27
method = modified trap
totiter = 2085
traniter = 2082
tranpoints = 1042
accept = 1042
rejected = 0
matrix size = 5
fillins = 0
solver = Normal
Matrix Compiler1: 150 bytes object code size  0.1/0.0/[0.0]
Matrix Compiler2: 321 bytes object code size  0.1/0.1/[0.1]

