Circuit: * C:\Users\haha3\Documents\Chronos\Spice\schematic_lite.asc

WARNING: Less than two connections to node U1:9.  This node is used by E:U1:CMR.
Direct Newton iteration failed to find .op point.  (Use ".option noopiter" to skip.)
Starting Gmin stepping
Gmin = 10
Gmin = 1.07374
vernier = 0.5
vernier = 0.25
Gmin = 0.281475
vernier = 0.125
vernier = 0.0625
vernier = 0.03125
Gmin = 0.264596
vernier = 0.015625
vernier = 0.0078125
vernier = 0.00390625
vernier = 0.00195313
Gmin = 0.265883
vernier = 0.000976563
vernier = 0.000488281
Gmin = 0
Gmin stepping succeeded in finding the operating point.


Date: Mon Feb 24 19:40:11 2020
Total elapsed time: 1.145 seconds.

tnom = 27
temp = 27
method = modified trap
totiter = 4281
traniter = 2644
tranpoints = 1323
accept = 1162
rejected = 161
matrix size = 329
fillins = 588
solver = Normal
Thread vector: 32.8/11.5[6] 13.7/5.3[6] 4.4/3.0[6] 1.5/2.6[1]  2592/500
Matrix Compiler1: 44.20 KB object code size  23.2/9.3/[3.4]
Matrix Compiler2: 34.21 KB object code size  10.7/14.4/[2.3]

